  
       XFOIL         Version 6.99
  
 Calculated polar for: NACA 2607                                       
  
 1 1 Reynolds number fixed          Mach number fixed         
  
 xtrf =   1.000 (top)        1.000 (bottom)  
 Mach =   0.000     Re =     0.200 e 6     Ncrit =   9.000
  
   alpha    CL        CD       CDp       CM     Top_Xtr  Bot_Xtr
  ------ -------- --------- --------- -------- -------- --------
   1.000   0.3236   0.01069   0.00526  -0.0649   0.9651   1.0000
   2.000   0.4927   0.01015   0.00501  -0.0756   0.9301   1.0000
   3.000   0.6156   0.00873   0.00384  -0.0732   0.8314   1.0000
   4.000   0.6945   0.01116   0.00425  -0.0641   0.3498   1.0000
   5.000   0.7709   0.01697   0.00842  -0.0584   0.0480   1.0000
   6.000   0.8664   0.02276   0.01455  -0.0546   0.0337   1.0000
   7.000   0.9519   0.03587   0.02894  -0.0498   0.0299   1.0000
