  
       XFOIL         Version 6.99
  
 Calculated polar for: NACA 2513                                       
  
 1 1 Reynolds number fixed          Mach number fixed         
  
 xtrf =   1.000 (top)        1.000 (bottom)  
 Mach =   0.000     Re =     0.400 e 6     Ncrit =   9.000
  
   alpha    CL        CD       CDp       CM     Top_Xtr  Bot_Xtr
  ------ -------- --------- --------- -------- -------- --------
   0.000   0.2598   0.00734   0.00257  -0.0623   0.7831   0.7446
  -1.000   0.1547   0.00782   0.00265  -0.0648   0.8307   0.5902
  -2.000   0.0472   0.00843   0.00293  -0.0665   0.8721   0.4612
  -3.000  -0.0613   0.00920   0.00342  -0.0679   0.9066   0.3460
  -4.000  -0.1754   0.01025   0.00414  -0.0680   0.9324   0.2395
  -5.000  -0.2987   0.01155   0.00512  -0.0657   0.9526   0.1510
  -6.000  -0.4405   0.01311   0.00646  -0.0590   0.9642   0.0943
  -7.000  -0.5781   0.01496   0.00823  -0.0527   0.9762   0.0664
  -8.000  -0.7131   0.01702   0.01033  -0.0465   0.9874   0.0515
  -9.000  -0.8457   0.01951   0.01304  -0.0403   0.9973   0.0424
 -10.000  -0.9291   0.02231   0.01606  -0.0432   1.0000   0.0371
 -11.000  -0.9792   0.02549   0.01938  -0.0520   1.0000   0.0335
 -12.000  -1.0123   0.02910   0.02350  -0.0627   1.0000   0.0309
 -13.000  -1.0307   0.03373   0.02832  -0.0732   1.0000   0.0290
 -14.000  -1.0059   0.04365   0.03900  -0.0764   1.0000   0.0279
 -15.000  -0.9458   0.06584   0.06199  -0.0609   1.0000   0.0272
 -16.000  -0.5539   0.17772   0.17475  -0.0011   1.0000   0.0354
 -17.000  -0.5968   0.18787   0.18491   0.0010   1.0000   0.0333
 -18.000  -0.6119   0.20439   0.20140   0.0125   1.0000   0.0293
 -19.000  -0.6380   0.21974   0.21675   0.0217   1.0000   0.0262
